/*---------------------------------------------------------------------------*\
| =========                 |                                                 |
| \\      /  F ield         | OpenFOAM: The Open Source CFD Toolbox           |
|  \\    /   O peration     | Version:  v2406                                 |
|   \\  /    A nd           | Web:      www.openfoam.com                      |
|    \\/     M anipulation  |                                                 |
\*---------------------------------------------------------------------------*/
Build  : 7cf83b7-OpenFOAM-v2406
Exec   : icoFoam -case /tmp/cfdb_run/case
Date   : Jun 16 2026
Time   : 15:00:00
Host   : localhost
PID    : 12345
Time = 0.005

Courant Number mean: 0.45321 max: 1.23456
DILUPBiCG:  Solving for Ux, Initial residual = 0.999873, Final residual = 0.0876543, No Iterations 1
DILUPBiCG:  Solving for Uy, Initial residual = 0.999654, Final residual = 0.123456, No Iterations 1
DICPCG:  Solving for p, Initial residual = 1, Final residual = 0.456789, No Iterations 134
Time = 0.01

Courant Number mean: 0.423456 max: 1.098765
DILUPBiCG:  Solving for Ux, Initial residual = 0.0876543, Final residual = 0.00345678, No Iterations 1
DILUPBiCG:  Solving for Uy, Initial residual = 0.123456, Final residual = 0.00567890, No Iterations 1
DICPCG:  Solving for p, Initial residual = 0.456789, Final residual = 0.0234567, No Iterations 98
Time = 0.495

Courant Number mean: 0.213456 max: 0.654321
DILUPBiCG:  Solving for Ux, Initial residual = 1.2e-6, Final residual = 4.5e-8, No Iterations 1
DILUPBiCG:  Solving for Uy, Initial residual = 2.1e-6, Final residual = 8.9e-8, No Iterations 1
DICPCG:  Solving for p, Initial residual = 3.4e-5, Final residual = 1.2e-6, No Iterations 72
Time = 0.5

End
