/*---------------------------------------------------------------------------*\
| =========                 |                                                 |
| \\      /  F ield         | OpenFOAM: The Open Source CFD Toolbox           |
|  \\    /   O peration     | Version:  v2406                                 |
|   \\  /    A nd           | Web:      www.openfoam.com                      |
|    \\/     M anipulation  |                                                 |
\*---------------------------------------------------------------------------*/
Build  : 7cf83b7-OpenFOAM-v2406
Exec   : blockMesh -case /tmp/run/case
Date   : Jan 01 2026
Time   : 12:00:00
Host   : test-host
PID    : 12345
nCells: 400;

Creating convex polyhedra from cells

End
